&jules_radiation
i_sea_alb_method=1,
l_cosz=.true.,
/
