&jules_surface_types
ice=17
lake=15
nnvg=4
npft=13
soil=14
urban=16
/
