&jules_snow
cansnowpft=.false.,.true.,15*.false.,
dzsnow=0.1,0.2,0.2,
nsmax=3,
/
