&jules_pftparm
a_wl_io=0.65,0.65,0.005,0.005,0.10,
a_ws_io=10.00,10.00,1.00,1.00,10.00,
albsnc_max_io=2.50e-1,2.50e-1,6.00e-1,6.00e-1,4.00e-1,
albsnc_min_io=3.00e-1,3.00e-1,8.00e-1,8.00e-1,8.00e-1,
albsnf_max_io=1.43e-1,8.80e-2,1.92e-1,1.59e-1,1.15e-1,
alnir_io=0.45,0.35,0.58,0.58,0.58,
alpar_io=0.10,0.07,0.10,0.10,0.10,
alpha_io=0.08,0.08,0.08,0.040,0.08,
b_wl_io=5*1.667,
c3_io=1,1,1,0,1,
can_struct_a_io=5*1.0,
canht_ft_io=19.01,16.38,0.79,1.26,1.00,
catch0_io=5*5.00e-1,
dcatch_dlai_io=5*5.00e-2,
dgl_dm_io=5*0.0,
dgl_dt_io=9.0,9.0,0.0,0.0,9.0,
dqcrit_io=0.090,0.060,0.100,0.075,0.100,
dz0v_dh_io=5.00e-2,5.00e-2,1.00e-1,1.00e-1,1.00e-1,
emis_pft_io=0.98,0.99,0.98,0.98,0.98,
eta_sl_io=5*0.01,
f0_io=0.875,0.875,0.900,0.800,0.900,
fd_io=0.015,0.015,0.015,0.025,0.015,
fsmc_mod_io=5*0,
fsmc_of_io=5*0.00,
fsmc_p0_io=5*0.0,
g_leaf_0_io=5*0.25,
glmin_io=5*1.0e-6,
hw_sw_io=5*0.5,
infil_f_io=4.00,4.00,2.00,2.00,2.00,
kext_io=5*5.00e-1,
kn_io=5*0.78,
knl_io=5*0.20,
kpar_io=5*0.50,
lai_alb_lim_io=5*0.5,
lai_io=5.0,4.0,2.0,4.0,1.0,
lma_io=0.0824,0.2263,0.0498,0.1370,0.0695,
neff_io=0.8e-3,0.8e-3,0.8e-3,0.4e-3,0.8e-3,
nl0_io=0.040,0.030,0.060,0.030,0.030,
nmass_io=0.0210,0.0115,0.0219,0.0131,0.0219,
nr_io=0.01726,0.00784,0.0162,0.0084,0.01726,
nr_nl_io=5*1.00,
ns_nl_io=0.10,0.10,1.00,1.00,0.10,
nsw_io=0.0072,0.0083,0.01604,0.0202,0.0072,
omega_io=0.15,0.15,0.15,0.17,0.15,
omnir_io=0.70,0.45,0.83,0.83,0.83,
orient_io=5*0,
q10_leaf_io=5*2.00,
r_grow_io=5*0.25,
rootd_ft_io=3.00,1.00,5.00e-1,5.00e-1,5.00e-1,
sigl_io=0.0375,0.1000,0.0250,0.0500,0.0500,
tleaf_of_io=273.15,243.15,258.15,258.15,243.15,
tlow_io=0.0,-5.0,0.0,13.0,0.0,
tupp_io=36.0,31.0,36.0,45.0,36.0,
vint_io=5.73,6.32,6.42,0.00,14.71,
vsl_io=29.81,18.15,40.96,10.24,23.15,
z0hm_classic_pft_io=5*0.1,
z0hm_pft_io=1.65,1.65,1.00e-1,1.00e-1,1.00e-1,
/
&cable_pftparm
a1gs_io=6*9.000000,4.000000,9.000000,9.000000,4.000000,7*9.000000,
alpha_io=6*0.200000,0.050000,0.200000,0.200000,0.050000,7*0.200000,
canst1_io=17*0.100000,
cfrd_io=6*0.015000,0.025000,0.015000,0.015000,0.025000,7*0.015000,
clitt_io=20.000000,6.000000,10.000000,13.000000,2.000000,2.000000,
0.300000,0.300000,0.000000,0.000000,2.000000,2.000000,
5*0.000000,
conkc0_io=17*0.000302,
conko0_io=17*0.256000,
convex_io=6*0.010000,0.800000,0.010000,0.010000,0.800000,7*0.010000,
cplant1_io=200.000000,300.000000,200.000000,300.000000,159.000000,
250.000000,250.000000,250.000000,150.000000,150.000000,
250.000000,1.000000,0.100000,0.000000,1.000000,1.000000,
0.000000,
cplant2_io=10217.000000,16833.000000,5967.000000,12000.000000,
5000.000000,12*0.000000,
cplant3_io=876.000000,1443.000000,511.000000,1029.000000,500.000000,
500.000000,500.000000,500.000000,607.000000,607.000000,
500.000000,1.000000,0.100000,0.000000,1.000000,1.000000,
0.000000,
csoil1_io=184.000000,303.000000,107.000000,216.000000,100.000000,
275.000000,275.000000,275.000000,149.000000,149.000000,
275.000000,1.000000,0.100000,1.000000,1.000000,1.000000,
1.000000,
csoil2_io=367.000000,606.000000,214.000000,432.000000,250.000000,
314.000000,314.000000,314.000000,300.000000,300.000000,
314.000000,1.000000,0.100000,1.000000,1.000000,1.000000,
1.000000,
d0gs_io=17*1500.000000,
ejmax_io=17*0.000000,
ekc_io=17*59430.000000,
eko_io=17*36000.000000,
extkn_io=17*0.001000,
frac4_io=6*0.000000,1.000000,0.000000,0.000000,1.000000,7*0.000000,
froot1_io=0.050000,0.200000,0.200000,0.200000,0.200000,0.150000,
11*0.000000,
froot2_io=0.050000,0.200000,0.200000,0.200000,0.200000,0.150000,
11*0.000000,
froot3_io=0.050000,0.200000,0.200000,0.200000,0.200000,0.150000,
11*0.000000,
froot4_io=0.050000,0.200000,0.200000,0.200000,0.200000,0.150000,
11*0.000000,
froot5_io=0.050000,0.200000,0.200000,0.200000,0.200000,0.150000,
11*0.000000,
froot6_io=0.050000,0.200000,0.200000,0.200000,0.200000,0.150000,
11*0.000000,
g0_io=17*0.000000,
g1_io=2.346064,4.114762,2.346064,4.447321,4.694803,5.248500,
1.616178,2.222156,5.789377,1.616178,5.248500,5.248500,
0.000000,5.248500,5.248500,5.248500,5.248500,
gswmin_io=6*0.010000,0.040000,0.010000,0.010000,0.040000,7*0.010000,
hc_io=17.000000,35.000000,15.500000,20.000000,0.600000,0.567000,
0.567000,0.567000,0.550000,0.550000,0.567000,0.200000,
6.017000,0.200000,0.200000,0.200000,0.200000,
length_io=0.055000,0.100000,0.040000,0.150000,0.100000,6*0.300000,
0.030000,0.242000,0.030000,0.030000,0.030000,0.030000,
ratecp1_io=17*1.000000,
ratecp2_io=17*0.030000,
ratecp3_io=17*0.140000,
ratecs1_io=17*2.000000,
ratecs2_io=17*0.500000,
refl1_io=0.062000,0.076000,0.056000,0.092000,0.100000,0.110000,
0.100000,0.117000,0.100000,0.090000,0.108000,0.055000,
0.091000,0.238000,0.143000,0.143000,0.159000,
refl2_io=0.302000,0.350000,0.275000,0.380000,0.400000,0.470000,
0.400000,0.343000,0.400000,0.360000,0.343000,0.190000,
0.310000,0.457000,0.275000,0.275000,0.305000,
refl3_io=17*0.010000,
rootbeta_io=0.943000,0.962000,0.966000,0.961000,0.964000,0.943000,
0.943000,0.943000,0.961000,0.961000,0.943000,0.975000,
5*0.961000,
rp20_io=3.000000,0.600000,3.000000,2.200000,1.000000,1.500000,
2.800000,2.500000,1.500000,1.000000,1.500000,6*1.000000,
rpcoef_io=17*0.083200,
rs20_io=11*1.000000,0.000000,1.000000,0.000000,0.000000,0.000000,
0.000000,
shelrb_io=17*2.000000,
taul1_io=0.050000,0.050000,0.045000,0.050000,0.050000,0.070000,
0.100000,0.080000,0.100000,0.090000,0.075000,0.023000,
0.059000,0.039000,0.023000,0.023000,0.026000,
taul2_io=0.100000,0.250000,0.144000,0.250000,0.240000,0.250000,
0.150000,0.124000,0.150000,0.225000,0.146000,0.198000,
0.163000,0.189000,0.113000,0.113000,0.113000,
taul3_io=17*0.010000,
tmaxvj_io=10.000000,10.000000,10.000000,15.000000,13*10.000000,
tminvj_io=15.000000,15.000000,5.000000,5.000000,13*15.000000,
vbeta_io=2.000000,2.000000,2.000000,2.000000,4.000000,4.000000,
4.000000,4.000000,2.000000,2.000000,4.000000,4.000000,
2.000000,4.000000,4.000000,4.000000,4.000000,
vcmax_io=0.000040,0.000055,0.000040,0.000060,0.000040,0.000060,
0.000010,0.000040,0.000080,0.000080,0.000060,0.000017,
0.000001,0.000017,0.000017,0.000017,0.000017,
vegcf_io=9.000000,14.000000,9.000000,8.000000,5.000000,7.000000,
7.000000,5.000000,7.000000,1.000000,7.000000,6*1.000000,
wai_io=1.000000,1.000000,1.000000,1.000000,13*0.000000,
width_io=0.001000,0.050000,0.001000,0.080000,0.005000,6*0.010000,
0.003000,0.015000,0.001000,0.001000,0.001000,0.001000,
xalbnir_io=17*1.000000,
xfang_io=0.010000,0.100000,0.010000,0.250000,0.010000,6*0.300000,
0.100000,5*0.000000,
zr_io=1.800000,3.000000,2.000000,2.000000,2.500000,5*0.500000,
1.800000,3.100000,3.000000,1.000000,1.000000,1.000000,
1.000000,
/
