-------------------------
Executing Hand edits:

  



Now running ~pfu599/umui_jobs/hand_edits/vn82_submit.ed
#PBS -o $RCF_OUTPUT_FILE
11608
11644
----- End of ~pfu599/umui_jobs/hand_edits/vn82_submit.ed -----

Now running /home/599/jxs599/umui_jobs/eds/cable.ed
   C98_0A=c98_0a
   C97_3A=c97_3a \
 &DOMAIN NAME="DTILE", IOPL=5
 PSLIST=1,2,3,4,5,6,7,8,9,
 &DOMAIN NAME="DPFTS", IOPL=5
 PSLIST=1,2,3,4,5,
4893
4910
3812
?
3236
3237
40735
40779
17179
?
----- End of /home/599/jxs599/umui_jobs/eds/cable.ed -----

Now running /home/599/jxs599/umui_jobs/eds/mod_date.ed
 FIXHD(21)=0,
 FIXHD(28)=0,
6298
6324
6350
----- End of /home/599/jxs599/umui_jobs/eds/mod_date.ed -----

End of Hand edits
-------------------------
    

