&jules_snow
aicemax=0.78,0.36,
cansnowpft=.false.,.true.,11*.false.,
dzsnow=0.1,0.2,0.2,
frac_snow_subl_melt=0,
graupel_options=0,
i_basal_melting_opt=0,
i_grain_growth_opt=0,
i_relayer_opt=0,
i_snow_cond_parm=0,
l_et_metamorph=.false.,
l_snow_infilt=.false.,
l_snow_nocan_hc=.false.,
l_snowdep_surf=.true.,
lai_alb_lim_sn=13*0.5,
nsmax=3,
rho_firn_albedo=550.0,
unload_rate_cnst=13*0.0,
unload_rate_u=13*0.0,
/
