&jules_triffid
alloc_fast_io=0.6,0.6,1.0,1.0,0.8,0.8,7*0.0,
alloc_med_io=0.3,0.4,0.0,0.0,0.2,8*0.0,
alloc_slow_io=0.1,12*0.0,
crop_io=0,0,1,1,9*0,
dpm_rpm_ratio_io=0.25,0.25,0.67,0.67,0.33,0.33,7*0.0,
g_area_io=0.005,0.004,0.25,0.25,0.05,8*0.0,
g_grow_io=13*20.00,
g_root_io=13*0.25,
g_wood_io=0.01,0.01,0.20,0.20,0.05,0.05,7*0.0,
lai_max_io=9.00,9.00,11*4.00,
lai_min_io=3.00,3.00,11*1.00,
retran_l_io=13*0.5,
retran_r_io=13*0.2,
/
