 &nam_config
  ICAL = 2,
  ISIZE = 64,
  L32BIT = .FALSE.,
  VERSION = 6.3,
  LBIGENDOUT = .TRUE.,
  LWFIO = .TRUE.,
  IWFIO_SIZE = 2048
 /

 &nam_gridconfig
  LAVERT = .FALSE.,
  LDEEPSOIL = .TRUE.,
  NSOILLEV = 6,
  SOILLEV(1) = 0.1,
  SOILLEV(2) = 0.25,
  SOILLEV(3) = 0.65,
  SOILLEV(4) = 2.0,
  SOILLEV(5) = 3.0,
  SOILLEV(6) = 4.0
 /

 &nam_ozone
 /

 &nam_smow
 /

 &nam_slt
  LSLT = .TRUE.,
  SLT_FILEIN = "/cs/datastore/u/csdar/srb001/um/projects/ancils/xancil/soil_layers/tsoil/6_layers/newqrclim.nc",
  SLT_NCNAME = "soiltemp",
  SLT_FILEOUT = "/cs/datastore/u/csdar/srb001/um/projects/ancils/xancil/soil_layers/tsoil/6_layers/slt",
  LSLT_PERIODIC = .TRUE.,
  ISLT_MASK = 0,
  ISLT_TIMEUSAGE1 = 0,
  ISLT_TIMEUSAGE2 = 0,
  ISLT_STARTDATE(1) = 0000,
  ISLT_STARTDATE(2) = 1,
  ISLT_STARTDATE(3) = 16,
  ISLT_STARTDATE(4) = 0,
  ISLT_STARTDATE(5) = 0,
  ISLT_STARTDATE(6) = 0,
  ISLT_NTIMES = 12,
  ISLT_INTERVAL = 1,
  ISLT_INTUNIT = 1,
  LSLT_MM = .TRUE.
 /

 &nam_soil
 /

 &nam_veg
 /

 &nam_vegfrac
 /

 &nam_vegfunc
 /

 &nam_vegdist
 /

 &nam_sst
 /

 &nam_ice
 /

 &nam_orog
 /

 &nam_mask
 /

 &nam_lfrac
 /

 &nam_cdose
 /

 &nam_ts1
 /

 &nam_flux
 /

