&jules_initial
const_val=0.0,276.78,12.1,50.0,0.759,3.0,0.0,0.0,0.0,
dump_file=.false.,
file='initial_conditions.dat',
nvars=9,
total_snow=.true.,
use_file=6*.false.,.true.,.true.,.true.,
var='canopy','tstar_tile','cs','rgrain','sthzw','zw','sthuf',
't_soil','snow_tile',
var_name=9*'',
/
