&jules_surface_types
barren=14,
c3_cropland=9,
c3_grassland=6,
c4_cropland=10,
c4_grassland=7,
deciduous_broadleaf=4,
deciduous_needleleaf=3,
empty1=12,
empty2=13,
evergreen_broadleaf=2,
evergreen_needleleaf=1,
ice=17,
lakes=16,
nnvg=4,
npft=13,
shrub=5,
tundra=8,
urban=15,
wetland=11,
/
